framework/functions/getMpcSteady.m
%% getMpcSteady: TODO
function [mpc] = getMpcSteady()
	mpc.baseMVA = 100;
	% Nodes(id,type,Pd,Qd,conductance,susceptance,area,mag0,ang0,baseKV,zone,Vmax,Vmin)
	mpc.bus = [

		1	3	0	0	0	0	1	1.040	0	16.5	1	1.1	0.9;
		2	2	0	0	0	0	1	1.025	0	18.0	1	1.1	0.9;
		3	2	0	0	0	0	1	1.025	0	13.8	1	1.1	0.9;
		4	1	0	0	0	0	1	1		0	230.0	1	1.1	0.9;
		5	1	125	50	0	0	1	1		0	230.0	1	1.1	0.9;
		6	1	90	30	0	0	1	1		0	230.0	1	1.1	0.9;
		7	1	0	0	0	0	1	1		0	230.0	1	1.1	0.9;
		8	1	100	35	0	0	1	1		0	230.0	1	1.1	0.9;
		9	1	0	0	0	0	1	1		0	230.0	1	1.1	0.9;

	];

	% Generator(nodeId,Pg,Qg,Qmax,Qmin,Vg,mBase,status,Pmax,Pmin)
	mpc.gen = [

		1	71.64	27.05	999	-999	1	100	1	999	-999;
		2	163.0	6.665	999	-999	1	100	1	999	-999;
		3	85.00	-10.86	999	-999	1	100	1	999	-999;

		% 教材数据
		% 3	20	0	30	-30	1.05	100	1	40	0	0	0	0	0	0	0	0	0	0	0	0;
	];

	% Branches(from, to, r, x, b, rateA, rateB, rateC, ratio, angle, status, angmin, angmax)
	mpc.branch = [

		4	5	0.010	0.085	0.176	0	0	0	0	0	1	-180	180;
		4	6	0.017	0.092	0.158	0	0	0	0	0	1	-180	180;
		5	7	0.032	0.161	0.306	0	0	0	0	0	1	-180	180;
		6	9	0.039	0.170	0.358	0	0	0	0	0	1	-180	180;
		7	8	0.0085	0.072	0.149	0	0	0	0	0	1	-180	180;
		8	9	0.0119	0.1008	0.209	0	0	0	0	0	1	-180	180;
		1	4	0		0.0576	0		0	0	0	1	0	1	-180	180;
		2	7	0		0.0625	0		0	0	0	1	0	1	-180	180;
		3	9	0		0.0586	0		0	0	0	1	0	1	-180	180;

	];
end